
*****************************************************************
******STMicroelectronics MOSFET, IGBT and Bipolar Library *******
*****************************************************************
*								*									
* Models provided by STMicroelectronics are not guaranteed to   *
* fully represent all the specifications and operating	        *
* characteristics of the product behavior that they reproduce.  *
* The model describes the characteristics of a typical device.  *
* In all cases, the current product data sheet contains all     *
* information to be used like final design guidelines and the   *
* only actual performance specification.                        *
* Altough models can be a useful tool in evaluating device      *
* performance, they cannot model exact device performance under *
* all conditions.					        *										
* STMicroelectronics therefore does not assume any              *
* responsibility arising from their use.                        *
* STMicroelectronics reserves the right to change models        *									
* without prior notice.                                         *
*                                                               *
*****************************************************************


.SUBCKT STW12N120K5_TN Tj Tcase
*******************************************
*******************************************
******    Thermal Net Junction Case  ******
*******************************************

Rth1 Tj Th1   3u
Rth2 Th1 Th2  2.9m
Rth3 Th2 Th3  39m
Rth4 Th3 Th4  67m
Rth5 Th4 Tcase  392m

Cth1 Tj 0  2u
Cth2 Th1 0  0.50m
Cth3 Th2 0  9m
Cth4 Th3 0  70m
Cth5 Th4 0  220m
Cth6 Tcase 0  220m

.ENDS STW12N120K5_TN
